# generated using pymatgen
data_Ti4Cu2O
_symmetry_space_group_name_H-M   'P 1'
_cell_length_a   8.09428119
_cell_length_b   8.09428119
_cell_length_c   8.09428119
_cell_angle_alpha   60.00000000
_cell_angle_beta   60.00000000
_cell_angle_gamma   60.00000000
_symmetry_Int_Tables_number   1
_chemical_formula_structural   Ti4Cu2O
_chemical_formula_sum   'Ti16 Cu8 O4'
_cell_volume   374.99015414
_cell_formula_units_Z   4
loop_
 _symmetry_equiv_pos_site_id
 _symmetry_equiv_pos_as_xyz
  1  'x, y, z'
loop_
 _atom_site_type_symbol
 _atom_site_label
 _atom_site_symmetry_multiplicity
 _atom_site_fract_x
 _atom_site_fract_y
 _atom_site_fract_z
 _atom_site_occupancy
  Ti  Ti1  1  0.180708  0.180708  0.819292  1
  Ti  Ti2  1  0.819292  0.819292  0.180708  1
  Ti  Ti3  1  0.069292  0.069292  0.430708  1
  Ti  Ti4  1  0.430708  0.069292  0.430708  1
  Ti  Ti5  1  0.069292  0.430708  0.069292  1
  Ti  Ti6  1  0.430708  0.430708  0.069292  1
  Ti  Ti7  1  0.819292  0.180708  0.180708  1
  Ti  Ti8  1  0.069292  0.430708  0.430708  1
  Ti  Ti9  1  0.625000  0.625000  0.125000  1
  Ti  Ti10  1  0.625000  0.625000  0.625000  1
  Ti  Ti11  1  0.125000  0.625000  0.625000  1
  Ti  Ti12  1  0.625000  0.125000  0.625000  1
  Ti  Ti13  1  0.180708  0.819292  0.180708  1
  Ti  Ti14  1  0.819292  0.180708  0.819292  1
  Ti  Ti15  1  0.430708  0.069292  0.069292  1
  Ti  Ti16  1  0.180708  0.819292  0.819292  1
  Cu  Cu17  1  0.416565  0.750305  0.416565  1
  Cu  Cu18  1  0.833435  0.833435  0.833435  1
  Cu  Cu19  1  0.499695  0.833435  0.833435  1
  Cu  Cu20  1  0.833435  0.833435  0.499695  1
  Cu  Cu21  1  0.750305  0.416565  0.416565  1
  Cu  Cu22  1  0.416565  0.416565  0.416565  1
  Cu  Cu23  1  0.833435  0.499695  0.833435  1
  Cu  Cu24  1  0.416565  0.416565  0.750305  1
  O  O25  1  0.125000  0.125000  0.125000  1
  O  O26  1  0.125000  0.125000  0.625000  1
  O  O27  1  0.625000  0.125000  0.125000  1
  O  O28  1  0.125000  0.625000  0.125000  1
